*INCLUDE, INPUT=all.msh
*MATERIAL, Name=Aluminium
*CONDUCTIVITY
  200.,0.
*SOLID SECTION, Elset=Eall, Material=Aluminium
*PHYSICAL CONSTANTS,ABSOLUTE ZERO=-273.15,STEFAN BOLTZMANN=5.669E-8
*INITIAL CONDITIONS,TYPE=TEMPERATURE
  Nall,20.
*AMPLITUDE, NAME=Aflux
  0., 9433.
*AMPLITUDE, NAME=AinfTemp
  0., 20.
*AMPLITUDE, NAME=ARad
  0., .90
*STEP
*HEAT TRANSFER,STEADY STATE
*DFLUX, AMPLITUDE=Aflux
  Eall,BF,15.
*FILM
*INCLUDE, INPUT=hb.flm
*INCLUDE, INPUT=ht.flm
*INCLUDE, INPUT=hw.flm
*INCLUDE, INPUT=hc.flm
*RADIATE, AMPLITUDE=AinfTemp, RADIATION AMPLITUDE=ARad
*INCLUDE, INPUT=rad.rad
*EL FILE
  HFL
*NODE FILE
  NT,RFL
*END STEP
