*INCLUDE, INPUT=all.msh
*MATERIAL, Name=Aluminium
*CONDUCTIVITY
  200.,0.
*SOLID SECTION, Elset=Eall, Material=Aluminium
*PHYSICAL CONSTANTS,ABSOLUTE ZERO=-273.15,STEFAN BOLTZMANN=5.669E-8
*INITIAL CONDITIONS,TYPE=TEMPERATURE
  Nall,20.
*AMPLITUDE, NAME=Aflux
  0., 9422.58
*AMPLITUDE, NAME=AinfTemp
  0., 20.
*AMPLITUDE, NAME=ARad
  0., .90
*STEP
*HEAT TRANSFER,STEADY STATE
*DFLUX, AMPLITUDE=Aflux
  Eall,BF,2.
*FILM
*INCLUDE, INPUT=bottom.flm
*INCLUDE, INPUT=top.flm
*INCLUDE, INPUT=walls.flm
*INCLUDE, INPUT=channel.flm
*RADIATE, AMPLITUDE=AinfTemp, RADIATION AMPLITUDE=ARad
*INCLUDE, INPUT=rad.rad
*EL FILE
  HFL
*NODE FILE
  NT,RFL
*END STEP
