*INCLUDE, INPUT=all.msh
*MATERIAL, Name=Aluminium
*CONDUCTIVITY
  200.,0.
*SOLID SECTION, Elset=Eall, Material=Aluminium
*INITIAL CONDITIONS,TYPE=TEMPERATURE
  Nall,30.
*AMPLITUDE, NAME=Aflux
  0., 62.5
*STEP
*HEAT TRANSFER,STEADY STATE
*DFLUX, AMPLITUDE=Aflux
  Eall,BF,32.1
*FILM
*INCLUDE, INPUT=air.flm
*EL FILE
  HFL
*NODE FILE
  NT,RFL
*END STEP
